<?xml version="1.0" encoding="UTF-8"?>

<!-- generated on 2023-12-05 22:18:01 by Eclipse SUMO netedit Version 1.17.0
<configuration xmlns:xsi="http://www.w3.org/2001/XMLSchema-instance" xsi:noNamespaceSchemaLocation="http://sumo.dlr.de/xsd/netconvertConfiguration.xsd">

    <input>
        <sumo-net-file value="D:\Program Files (x86)\Eclipse\Sumo\tools\sim_icarai\simulacao\final_icarai.net.xml"/>
    </input>

    <output>
        <output-file value="D:\Program Files (x86)\Eclipse\Sumo\tools\sim_icarai\simulacao\final_icarai.net.xml"/>
    </output>

    <processing>
        <geometry.min-radius.fix.railways value="false"/>
        <geometry.max-grade.fix value="false"/>
        <offset.disable-normalization value="true"/>
        <lefthand value="0"/>
    </processing>

    <junctions>
        <no-turnarounds value="true"/>
        <junctions.corner-detail value="5"/>
        <junctions.limit-turn-speed value="5.50"/>
        <rectangular-lane-cut value="0"/>
    </junctions>

    <pedestrian>
        <walkingareas value="0"/>
    </pedestrian>

</configuration>
-->

<net version="1.16" junctionCornerDetail="5" limitTurnSpeed="5.50" xmlns:xsi="http://www.w3.org/2001/XMLSchema-instance" xsi:noNamespaceSchemaLocation="http://sumo.dlr.de/xsd/net_file.xsd">

    <location netOffset="-692632.65,2535397.43" convBoundary="0.00,0.00,2907.69,2372.65" origBoundary="-43.121914,-22.915357,-43.093467,-22.893922" projParameter="+proj=utm +zone=23 +ellps=WGS84 +datum=WGS84 +units=m +no_defs"/>

    <type id="highway.bridleway" priority="1" numLanes="1" speed="2.78" allow="pedestrian" oneway="1" width="2.00"/>
    <type id="highway.bus_guideway" priority="1" numLanes="1" speed="27.78" allow="bus" oneway="1"/>
    <type id="highway.cycleway" priority="1" numLanes="1" speed="5.56" allow="bicycle" oneway="0" width="1.00"/>
    <type id="highway.footway" priority="1" numLanes="1" speed="2.78" allow="pedestrian" oneway="1" width="2.00"/>
    <type id="highway.ford" priority="1" numLanes="1" speed="2.78" allow="army" oneway="0"/>
    <type id="highway.living_street" priority="2" numLanes="1" speed="2.78" disallow="tram rail_urban rail rail_electric rail_fast ship" oneway="0"/>
    <type id="highway.motorway" priority="14" numLanes="2" speed="39.44" allow="private emergency authority army vip passenger hov taxi bus coach delivery truck trailer motorcycle evehicle custom1 custom2" oneway="1"/>
    <type id="highway.motorway_link" priority="9" numLanes="1" speed="22.22" allow="private emergency authority army vip passenger hov taxi bus coach delivery truck trailer motorcycle evehicle custom1 custom2" oneway="1"/>
    <type id="highway.path" priority="1" numLanes="1" speed="5.56" allow="pedestrian bicycle" oneway="0" width="2.00"/>
    <type id="highway.pedestrian" priority="1" numLanes="1" speed="2.78" allow="pedestrian" oneway="1" width="2.00"/>
    <type id="highway.primary" priority="12" numLanes="2" speed="27.78" disallow="tram rail_urban rail rail_electric rail_fast ship" oneway="0"/>
    <type id="highway.primary_link" priority="7" numLanes="1" speed="22.22" disallow="tram rail_urban rail rail_electric rail_fast ship" oneway="0"/>
    <type id="highway.raceway" priority="15" numLanes="2" speed="83.33" allow="vip" oneway="0"/>
    <type id="highway.residential" priority="3" numLanes="1" speed="13.89" disallow="tram rail_urban rail rail_electric rail_fast ship" oneway="0"/>
    <type id="highway.secondary" priority="11" numLanes="1" speed="27.78" disallow="tram rail_urban rail rail_electric rail_fast ship" oneway="0"/>
    <type id="highway.secondary_link" priority="6" numLanes="1" speed="22.22" disallow="tram rail_urban rail rail_electric rail_fast ship" oneway="0"/>
    <type id="highway.service" priority="1" numLanes="1" speed="5.56" allow="pedestrian delivery bicycle" oneway="0"/>
    <type id="highway.stairs" priority="1" numLanes="1" speed="1.39" allow="pedestrian" oneway="1" width="2.00"/>
    <type id="highway.step" priority="1" numLanes="1" speed="1.39" allow="pedestrian" oneway="1" width="2.00"/>
    <type id="highway.steps" priority="1" numLanes="1" speed="1.39" allow="pedestrian" oneway="1" width="2.00"/>
    <type id="highway.tertiary" priority="10" numLanes="1" speed="22.22" disallow="tram rail_urban rail rail_electric rail_fast ship" oneway="0"/>
    <type id="highway.tertiary_link" priority="5" numLanes="1" speed="22.22" disallow="tram rail_urban rail rail_electric rail_fast ship" oneway="0"/>
    <type id="highway.track" priority="1" numLanes="1" speed="5.56" allow="pedestrian motorcycle moped bicycle" oneway="0"/>
    <type id="highway.trunk" priority="13" numLanes="2" speed="27.78" disallow="pedestrian bicycle tram rail_urban rail rail_electric rail_fast ship" oneway="0"/>
    <type id="highway.trunk_link" priority="8" numLanes="1" speed="22.22" disallow="pedestrian bicycle tram rail_urban rail rail_electric rail_fast ship" oneway="0"/>
    <type id="highway.unclassified" priority="4" numLanes="1" speed="13.89" disallow="tram rail_urban rail rail_electric rail_fast ship" oneway="0"/>
    <type id="highway.unsurfaced" priority="1" numLanes="1" speed="8.33" disallow="tram rail_urban rail rail_electric rail_fast ship" oneway="0"/>
    <type id="railway.highspeed" priority="21" numLanes="1" speed="69.44" allow="rail_fast" oneway="1"/>
    <type id="railway.light_rail" priority="19" numLanes="1" speed="27.78" allow="rail_urban" oneway="1"/>
    <type id="railway.preserved" priority="16" numLanes="1" speed="27.78" allow="rail" oneway="1"/>
    <type id="railway.rail" priority="20" numLanes="1" speed="44.44" allow="rail" oneway="1"/>
    <type id="railway.subway" priority="18" numLanes="1" speed="27.78" allow="rail_urban" oneway="1"/>
    <type id="railway.tram" priority="17" numLanes="1" speed="13.89" allow="tram" oneway="1"/>

    <edge id=":10091229623_0" function="internal">
        <lane id=":10091229623_0_0" index="0" disallow="tram rail_urban rail rail_electric rail_fast ship" speed="9.77" length="10.25" shape="1059.74,1710.07 1058.31,1709.53 1056.16,1709.45 1053.29,1709.82 1049.71,1710.65"/>
        <lane id=":10091229623_0_1" index="1" disallow="tram rail_urban rail rail_electric rail_fast ship" speed="10.33" length="11.52" shape="1059.74,1710.07 1056.99,1708.44 1054.27,1707.47 1051.56,1707.18 1048.88,1707.56"/>
    </edge>
    <edge id=":10091229623_2" function="internal">
        <lane id=":10091229623_2_0" index="0" disallow="tram rail_urban rail rail_electric rail_fast ship" speed="27.78" length="12.31" shape="1059.74,1710.07 1049.62,1703.14"/>
        <lane id=":10091229623_2_1" index="1" disallow="tram rail_urban rail rail_electric rail_fast ship" speed="27.78" length="12.31" shape="1061.60,1707.47 1051.41,1700.49"/>
    </edge>
    <edge id=":10613071360_0" function="internal">
        <lane id=":10613071360_0_0" index="0" disallow="tram rail_urban rail rail_electric rail_fast ship" speed="13.89" length="0.10" shape="1998.49,876.96 1998.49,876.96"/>
        <lane id=":10613071360_0_1" index="1" disallow="tram rail_urban rail rail_electric rail_fast ship" speed="13.89" length="0.10" shape="1996.18,874.75 1996.18,874.75"/>
        <lane id=":10613071360_0_2" index="2" disallow="tram rail_urban rail rail_electric rail_fast ship" speed="13.89" length="0.10" shape="1993.86,872.55 1993.86,872.55"/>
        <lane id=":10613071360_0_3" index="3" disallow="tram rail_urban rail rail_electric rail_fast ship" speed="13.89" length="0.10" shape="1991.55,870.34 1991.55,870.34"/>
    </edge>
    <edge id=":11100337443_0" function="internal">
        <lane id=":11100337443_0_0" index="0" disallow="tram rail_urban rail rail_electric rail_fast ship" speed="6.47" length="9.03" shape="1585.20,1313.30 1583.76,1315.32 1583.32,1317.31 1583.88,1319.26 1585.45,1321.19"/>
    </edge>
    <edge id=":11100337443_1" function="internal">
        <lane id=":11100337443_1_0" index="0" disallow="tram rail_urban rail rail_electric rail_fast ship" speed="11.11" length="11.34" shape="1585.20,1313.30 1577.53,1321.51"/>
        <lane id=":11100337443_1_1" index="1" disallow="tram rail_urban rail rail_electric rail_fast ship" speed="11.11" length="11.34" shape="1582.88,1311.09 1575.17,1319.35"/>
        <lane id=":11100337443_1_2" index="2" disallow="tram rail_urban rail rail_electric rail_fast ship" speed="11.11" length="11.34" shape="1580.56,1308.88 1572.80,1317.19"/>
        <lane id=":11100337443_1_3" index="3" disallow="tram rail_urban rail rail_electric rail_fast ship" speed="11.11" length="11.34" shape="1578.25,1306.67 1570.44,1315.03"/>
    </edge>
    <edge id=":11117560475_0" function="internal">
        <lane id=":11117560475_0_0" index="0" disallow="tram rail_urban rail rail_electric rail_fast ship" speed="22.22" length="0.10" shape="2342.75,1364.22 2342.75,1364.22"/>
        <lane id=":11117560475_0_1" index="1" disallow="tram rail_urban rail rail_electric rail_fast ship" speed="22.22" length="0.10" shape="2344.97,1361.92 2344.97,1361.92"/>
    </edge>
    <edge id=":1364789941_0" function="internal">
        <lane id=":1364789941_0_0" index="0" disallow="tram rail_urban rail rail_electric rail_fast ship" speed="16.66" length="7.29" shape="1174.16,1779.23 1172.00,1779.66 1170.57,1780.28 1169.13,1780.82 1166.96,1780.99"/>
        <lane id=":1364789941_0_1" index="1" disallow="tram rail_urban rail rail_electric rail_fast ship" speed="16.66" length="7.29" shape="1173.90,1776.04 1171.85,1776.46 1170.49,1777.08 1169.14,1777.62 1167.08,1777.80"/>
    </edge>
    <edge id=":1369031609_0" function="internal">
        <lane id=":1369031609_0_0" index="0" disallow="tram rail_urban rail rail_electric rail_fast ship" speed="6.52" length="8.60" shape="2522.65,1367.05 2524.73,1365.99 2526.02,1364.51 2526.52,1362.61 2526.23,1360.29"/>
        <lane id=":1369031609_0_1" index="1" disallow="tram rail_urban rail rail_electric rail_fast ship" speed="7.34" length="11.18" shape="2522.65,1367.05 2526.06,1365.54 2528.30,1363.78 2529.39,1361.75 2529.32,1359.46"/>
    </edge>
    <edge id=":1369031609_2" function="internal">
        <lane id=":1369031609_2_0" index="0" disallow="tram rail_urban rail rail_electric rail_fast ship" speed="3.65" length="4.67" shape="2522.65,1367.05 2524.04,1367.41 2524.68,1368.04 2524.56,1368.93 2523.69,1370.07"/>
    </edge>
    <edge id=":1369031610_0" function="internal">
        <lane id=":1369031610_0_0" index="0" disallow="tram rail_urban rail rail_electric rail_fast ship" speed="13.89" length="14.32" shape="2516.83,1325.54 2512.91,1311.80"/>
        <lane id=":1369031610_0_1" index="1" disallow="tram rail_urban rail rail_electric rail_fast ship" speed="13.89" length="14.32" shape="2519.92,1324.70 2515.98,1310.89"/>
    </edge>
    <edge id=":1369031610_2" function="internal">
        <lane id=":1369031610_2_0" index="0" disallow="tram rail_urban rail rail_electric rail_fast ship" speed="7.92" length="14.36" shape="2524.01,1317.48 2520.13,1318.23 2516.98,1317.54 2514.57,1315.40 2512.91,1311.80"/>
        <lane id=":1369031610_2_1" index="1" disallow="tram rail_urban rail rail_electric rail_fast ship" speed="6.41" length="9.04" shape="2522.96,1314.46 2520.52,1314.93 2518.54,1314.49 2517.02,1313.15 2515.98,1310.89"/>
    </edge>
    <edge id=":1369031611_0" function="internal">
        <lane id=":1369031611_0_0" index="0" disallow="tram rail_urban rail rail_electric rail_fast ship" speed="22.22" length="11.19" shape="2272.07,1296.30 2264.04,1288.48"/>
        <lane id=":1369031611_0_1" index="1" disallow="tram rail_urban rail rail_electric rail_fast ship" speed="22.22" length="11.19" shape="2274.29,1293.99 2266.28,1286.20"/>
    </edge>
    <edge id=":1369031611_2" function="internal">
        <lane id=":1369031611_2_0" index="0" disallow="tram rail_urban rail rail_electric rail_fast ship" speed="6.52" length="9.02" shape="2274.20,1286.13 2272.22,1287.63 2270.24,1288.14 2268.26,1287.66 2266.28,1286.20"/>
    </edge>
    <edge id=":1369031612_0" function="internal">
        <lane id=":1369031612_0_0" index="0" disallow="tram rail_urban rail rail_electric rail_fast ship" speed="3.65" length="4.67" shape="2363.32,1287.47 2361.88,1287.55 2361.07,1287.16 2360.91,1286.28 2361.38,1284.91"/>
    </edge>
    <edge id=":1369031613_0" function="internal">
        <lane id=":1369031613_0_0" index="0" disallow="tram rail_urban rail rail_electric rail_fast ship" speed="6.06" length="9.07" shape="2411.56,1241.90 2412.75,1244.18 2414.32,1245.35 2416.28,1245.40 2418.62,1244.33"/>
    </edge>
    <edge id=":1369031613_1" function="internal">
        <lane id=":1369031613_1_0" index="0" disallow="tram rail_urban rail rail_electric rail_fast ship" speed="8.76" length="13.13" shape="2411.56,1241.90 2412.28,1245.31 2411.94,1248.39 2410.55,1251.14 2408.09,1253.57"/>
    </edge>
    <edge id=":1369031613_2" function="internal">
        <lane id=":1369031613_2_0" index="0" disallow="tram rail_urban rail rail_electric rail_fast ship" speed="3.65" length="1.44" shape="2411.56,1241.90 2411.20,1243.30"/>
    </edge>
    <edge id=":1369031613_6" function="internal">
        <lane id=":1369031613_6_0" index="0" disallow="tram rail_urban rail rail_electric rail_fast ship" speed="3.65" length="3.23" shape="2411.20,1243.30 2410.58,1243.94 2409.69,1243.83 2408.54,1242.96"/>
    </edge>
    <edge id=":1369031613_3" function="internal">
        <lane id=":1369031613_3_0" index="0" disallow="tram rail_urban rail rail_electric rail_fast ship" speed="7.37" length="9.06" shape="2406.15,1251.02 2407.85,1249.34 2408.81,1247.44 2409.04,1245.32 2408.54,1242.96"/>
    </edge>
    <edge id=":1369031613_4" function="internal">
        <lane id=":1369031613_4_0" index="0" disallow="tram rail_urban rail rail_electric rail_fast ship" speed="13.89" length="14.17" shape="2406.15,1251.02 2409.19,1249.08 2412.31,1247.55 2415.46,1246.09 2418.62,1244.33"/>
    </edge>
    <edge id=":1369031613_5" function="internal">
        <lane id=":1369031613_5_0" index="0" disallow="tram rail_urban rail rail_electric rail_fast ship" speed="3.65" length="1.31" shape="2406.15,1251.02 2407.46,1250.94"/>
    </edge>
    <edge id=":1369031613_7" function="internal">
        <lane id=":1369031613_7_0" index="0" disallow="tram rail_urban rail rail_electric rail_fast ship" speed="3.65" length="3.36" shape="2407.46,1250.94 2407.59,1250.93 2408.40,1251.33 2408.56,1252.21 2408.09,1253.57"/>
    </edge>
    <edge id=":1369031615_0" function="internal">
        <lane id=":1369031615_0_0" index="0" disallow="tram rail_urban rail rail_electric rail_fast ship" speed="15.28" length="10.47" shape="2482.28,1209.43 2479.19,1199.45"/>
        <lane id=":1369031615_0_1" index="1" disallow="tram rail_urban rail rail_electric rail_fast ship" speed="15.28" length="10.47" shape="2485.35,1208.51 2482.23,1198.47"/>
    </edge>
    <edge id=":1369031615_2" function="internal">
        <lane id=":1369031615_2_0" index="0" disallow="tram rail_urban rail rail_electric rail_fast ship" speed="6.16" length="8.88" shape="2485.35,1208.51 2484.81,1205.69 2485.11,1203.58 2486.23,1202.17 2488.18,1201.46"/>
    </edge>
    <edge id=":1369031615_3" function="internal">
        <lane id=":1369031615_3_0" index="0" disallow="tram rail_urban rail rail_electric rail_fast ship" speed="7.18" length="8.99" shape="2476.41,1207.25 2478.23,1205.71 2479.30,1203.89 2479.62,1201.81 2479.19,1199.45"/>
    </edge>
    <edge id=":1369031615_4" function="internal">
        <lane id=":1369031615_4_0" index="0" disallow="tram rail_urban rail rail_electric rail_fast ship" speed="18.05" length="13.24" shape="2476.41,1207.25 2479.33,1205.31 2482.02,1203.62 2484.84,1202.30 2488.18,1201.46"/>
    </edge>
    <edge id=":1369031617_0" function="internal">
        <lane id=":1369031617_0_0" index="0" disallow="tram rail_urban rail rail_electric rail_fast ship" speed="5.75" length="9.17" shape="2386.87,1181.25 2385.63,1178.84 2384.08,1177.78 2382.23,1178.07 2380.08,1179.71"/>
    </edge>
    <edge id=":1369031617_1" function="internal">
        <lane id=":1369031617_1_0" index="0" disallow="tram rail_urban rail rail_electric rail_fast ship" speed="3.65" length="1.44" shape="2386.87,1181.25 2387.22,1179.85"/>
    </edge>
    <edge id=":1369031617_4" function="internal">
        <lane id=":1369031617_4_0" index="0" disallow="tram rail_urban rail rail_electric rail_fast ship" speed="3.65" length="3.23" shape="2387.22,1179.85 2387.85,1179.21 2388.73,1179.32 2389.89,1180.19"/>
    </edge>
    <edge id=":1369031617_2" function="internal">
        <lane id=":1369031617_2_0" index="0" disallow="tram rail_urban rail rail_electric rail_fast ship" speed="8.96" length="11.82" shape="2390.72,1168.99 2389.35,1171.03 2388.75,1173.57 2388.93,1176.62 2389.89,1180.19"/>
    </edge>
    <edge id=":1369031617_3" function="internal">
        <lane id=":1369031617_3_0" index="0" disallow="tram rail_urban rail rail_electric rail_fast ship" speed="13.89" length="15.11" shape="2390.72,1168.99 2380.08,1179.71"/>
    </edge>
    <edge id=":1369031620_0" function="internal">
        <lane id=":1369031620_0_0" index="0" disallow="tram rail_urban rail rail_electric rail_fast ship" speed="5.68" length="9.23" shape="2451.21,1112.19 2450.03,1109.69 2448.53,1108.61 2446.71,1108.95 2444.58,1110.72"/>
    </edge>
    <edge id=":1369031620_1" function="internal">
        <lane id=":1369031620_1_0" index="0" disallow="tram rail_urban rail rail_electric rail_fast ship" speed="16.67" length="15.27" shape="2451.21,1112.19 2446.60,1097.63"/>
        <lane id=":1369031620_1_1" index="1" disallow="tram rail_urban rail rail_electric rail_fast ship" speed="16.67" length="15.27" shape="2454.26,1111.22 2449.65,1096.67"/>
    </edge>
    <edge id=":1369031620_3" function="internal">
        <lane id=":1369031620_3_0" index="0" disallow="tram rail_urban rail rail_electric rail_fast ship" speed="13.89" length="17.14" shape="2456.29,1098.20 2444.58,1110.72"/>
    </edge>
    <edge id=":1369031620_4" function="internal">
        <lane id=":1369031620_4_0" index="0" disallow="tram rail_urban rail rail_electric rail_fast ship" speed="5.69" length="9.22" shape="2456.29,1098.20 2454.14,1099.94 2452.32,1100.26 2450.82,1099.17 2449.65,1096.67"/>
    </edge>
    <edge id=":1369031649_0" function="internal">
        <lane id=":1369031649_0_0" index="0" disallow="tram rail_urban rail rail_electric rail_fast ship" speed="15.28" length="1.34" shape="1783.00,604.65 1784.29,605.15"/>
        <lane id=":1369031649_0_1" index="1" disallow="tram rail_urban rail rail_electric rail_fast ship" speed="15.28" length="1.34" shape="1784.14,601.66 1785.34,602.13"/>
    </edge>
    <edge id=":1369031654_0" function="internal">
        <lane id=":1369031654_0_0" index="0" disallow="tram rail_urban rail rail_electric rail_fast ship" speed="16.67" length="0.92" shape="1235.10,543.48 1234.64,544.45"/>
        <lane id=":1369031654_0_1" index="1" disallow="tram rail_urban rail rail_electric rail_fast ship" speed="16.67" length="0.92" shape="1232.11,542.32 1231.78,543.01"/>
    </edge>
    <edge id=":1369031654_2" function="internal">
        <lane id=":1369031654_2_0" index="0" disallow="tram rail_urban rail rail_electric rail_fast ship" speed="16.67" length="0.31" shape="1226.06,540.13 1226.08,540.09 1226.10,540.06 1226.11,540.03 1226.13,539.99"/>
        <lane id=":1369031654_2_1" index="1" disallow="tram rail_urban rail rail_electric rail_fast ship" speed="16.67" length="0.31" shape="1228.92,541.57 1228.98,541.45 1229.02,541.36 1229.06,541.28 1229.11,541.15"/>
    </edge>
    <edge id=":1369031655_0" function="internal">
        <lane id=":1369031655_0_0" index="0" disallow="tram rail_urban rail rail_electric rail_fast ship" speed="12.50" length="13.27" shape="1685.51,548.33 1682.32,545.62 1679.97,543.49 1677.66,542.01 1674.58,541.26"/>
    </edge>
    <edge id=":1369031655_1" function="internal">
        <lane id=":1369031655_1_0" index="0" disallow="tram rail_urban rail rail_electric rail_fast ship" speed="9.72" length="13.91" shape="1687.46,545.79 1676.22,537.67"/>
        <lane id=":1369031655_1_1" index="1" disallow="tram rail_urban rail rail_electric rail_fast ship" speed="9.72" length="13.91" shape="1689.41,543.25 1678.10,535.07"/>
    </edge>
    <edge id=":1369031661_0" function="internal">
        <lane id=":1369031661_0_0" index="0" disallow="tram rail_urban rail rail_electric rail_fast ship" speed="7.56" length="7.60" shape="1547.72,518.82 1545.42,518.48 1543.46,518.57 1541.84,519.11 1540.57,520.10"/>
    </edge>
    <edge id=":1369031661_1" function="internal">
        <lane id=":1369031661_1_0" index="0" disallow="tram rail_urban rail rail_electric rail_fast ship" speed="8.33" length="8.34" shape="1546.21,513.95 1540.57,520.10"/>
    </edge>
    <edge id=":1369031672_0" function="internal">
        <lane id=":1369031672_0_0" index="0" disallow="tram rail_urban rail rail_electric rail_fast ship" speed="16.67" length="11.57" shape="1294.15,430.93 1292.18,433.67 1290.76,435.50 1289.45,437.40 1287.83,440.35"/>
        <lane id=":1369031672_0_1" index="1" disallow="tram rail_urban rail rail_electric rail_fast ship" speed="16.67" length="11.57" shape="1291.50,429.14 1289.46,431.99 1287.99,433.89 1286.64,435.86 1284.97,438.91"/>
    </edge>
    <edge id=":1369031672_2" function="internal">
        <lane id=":1369031672_2_0" index="0" disallow="tram rail_urban rail rail_electric rail_fast ship" speed="10.28" length="13.29" shape="1286.08,426.18 1287.06,428.84 1287.21,431.84 1286.51,435.20 1284.97,438.91"/>
    </edge>
    <edge id=":1369031717_0" function="internal">
        <lane id=":1369031717_0_0" index="0" disallow="tram rail_urban rail rail_electric rail_fast ship" speed="16.67" length="7.73" shape="1287.75,332.48 1288.00,330.19 1288.20,328.62 1288.25,327.06 1288.05,324.78"/>
    </edge>
    <edge id=":1369031717_1" function="internal">
        <lane id=":1369031717_1_0" index="0" disallow="tram rail_urban rail rail_electric rail_fast ship" speed="11.83" length="4.33" shape="1290.94,332.75 1291.08,331.48 1291.31,330.63 1291.70,329.83 1292.35,328.71"/>
    </edge>
    <edge id=":1369554432_0" function="internal">
        <lane id=":1369554432_0_0" index="0" disallow="tram rail_urban rail rail_electric rail_fast ship" speed="11.45" length="14.05" shape="1688.13,600.84 1687.15,596.31 1685.87,592.73 1684.28,590.09 1682.39,588.41"/>
    </edge>
    <edge id=":1369554432_1" function="internal">
        <lane id=":1369554432_1_0" index="0" disallow="tram rail_urban rail rail_electric rail_fast ship" speed="7.39" length="18.34" shape="1688.13,600.84 1687.88,595.11 1689.45,592.06 1692.86,591.71 1698.11,594.04"/>
    </edge>
    <edge id=":1369554432_2" function="internal">
        <lane id=":1369554432_2_0" index="0" disallow="tram rail_urban rail rail_electric rail_fast ship" speed="3.65" length="4.67" shape="1688.13,600.84 1688.73,599.53 1689.45,599.00 1690.30,599.27 1691.29,600.32"/>
    </edge>
    <edge id=":1369554432_3" function="internal">
        <lane id=":1369554432_3_0" index="0" disallow="tram rail_urban rail rail_electric rail_fast ship" speed="5.52" length="9.52" shape="1696.47,596.79 1693.75,595.58 1691.98,595.76 1691.16,597.34 1691.29,600.32"/>
    </edge>
    <edge id=":1369554432_4" function="internal">
        <lane id=":1369554432_4_0" index="0" disallow="tram rail_urban rail rail_electric rail_fast ship" speed="13.89" length="16.38" shape="1696.47,596.79 1682.39,588.41"/>
    </edge>
    <edge id=":1369554432_5" function="internal">
        <lane id=":1369554432_5_0" index="0" disallow="tram rail_urban rail rail_electric rail_fast ship" speed="3.65" length="1.44" shape="1696.47,596.79 1695.85,595.48"/>
    </edge>
    <edge id=":1369554432_9" function="internal">
        <lane id=":1369554432_9_0" index="0" disallow="tram rail_urban rail rail_electric rail_fast ship" speed="3.65" length="3.23" shape="1695.85,595.48 1695.92,594.59 1696.67,594.11 1698.11,594.04"/>
    </edge>
    <edge id=":1369554432_6" function="internal">
        <lane id=":1369554432_6_0" index="0" disallow="tram rail_urban rail rail_electric rail_fast ship" speed="13.89" length="16.39" shape="1684.02,585.66 1698.11,594.04"/>
    </edge>
    <edge id=":1369554432_7" function="internal">
        <lane id=":1369554432_7_0" index="0" disallow="tram rail_urban rail rail_electric rail_fast ship" speed="12.49" length="3.53" shape="1684.02,585.66 1686.49,587.76 1686.64,588.00"/>
    </edge>
    <edge id=":1369554432_8" function="internal">
        <lane id=":1369554432_8_0" index="0" disallow="tram rail_urban rail rail_electric rail_fast ship" speed="3.65" length="1.44" shape="1684.02,585.66 1684.64,586.96"/>
    </edge>
    <edge id=":1369554432_10" function="internal">
        <lane id=":1369554432_10_0" index="0" disallow="tram rail_urban rail rail_electric rail_fast ship" speed="12.49" length="13.29" shape="1686.64,588.00 1688.52,590.91 1690.12,595.10 1691.29,600.32"/>
    </edge>
    <edge id=":1369554432_11" function="internal">
        <lane id=":1369554432_11_0" index="0" disallow="tram rail_urban rail rail_electric rail_fast ship" speed="3.65" length="3.23" shape="1684.64,586.96 1684.58,587.85 1683.83,588.33 1682.39,588.41"/>
    </edge>
    <edge id=":1369554439_0" function="internal">
        <lane id=":1369554439_0_0" index="0" disallow="tram rail_urban rail rail_electric rail_fast ship" speed="13.89" length="9.89" shape="1560.62,725.05 1559.12,722.54 1558.20,720.74 1557.53,718.84 1556.75,716.02"/>
    </edge>
    <edge id=":1369554439_1" function="internal">
        <lane id=":1369554439_1_0" index="0" disallow="tram rail_urban rail rail_electric rail_fast ship" speed="5.94" length="8.20" shape="1560.62,725.05 1559.34,722.49 1558.93,720.45 1559.39,718.93 1560.73,717.93"/>
    </edge>
    <edge id=":1369554439_2" function="internal">
        <lane id=":1369554439_2_0" index="0" disallow="tram rail_urban rail rail_electric rail_fast ship" speed="5.96" length="1.16" shape="1561.97,720.88 1560.83,721.05"/>
    </edge>
    <edge id=":1369554439_3" function="internal">
        <lane id=":1369554439_3_0" index="0" disallow="tram rail_urban rail rail_electric rail_fast ship" speed="3.65" length="1.03" shape="1561.97,720.88 1560.96,720.68"/>
    </edge>
    <edge id=":1369554439_4" function="internal">
        <lane id=":1369554439_4_0" index="0" disallow="tram rail_urban rail rail_electric rail_fast ship" speed="5.96" length="7.03" shape="1560.83,721.05 1560.32,721.13 1558.90,720.40 1557.71,718.70 1556.75,716.02"/>
    </edge>
    <edge id=":1369554439_5" function="internal">
        <lane id=":1369554439_5_0" index="0" disallow="tram rail_urban rail rail_electric rail_fast ship" speed="3.65" length="3.64" shape="1560.96,720.68 1560.55,720.61 1559.88,720.02 1559.93,719.13 1560.73,717.93"/>
    </edge>
    <edge id=":1369554441_0" function="internal">
        <lane id=":1369554441_0_0" index="0" disallow="tram rail_urban rail rail_electric rail_fast ship" speed="6.68" length="9.23" shape="1687.01,786.71 1689.13,788.16 1691.20,788.63 1693.22,788.13 1695.18,786.65"/>
    </edge>
    <edge id=":1369554441_1" function="internal">
        <lane id=":1369554441_1_0" index="0" disallow="tram rail_urban rail rail_electric rail_fast ship" speed="3.65" length="4.67" shape="1687.01,786.71 1687.36,788.11 1687.13,788.97 1686.29,789.30 1684.87,789.09"/>
    </edge>
    <edge id=":1369554441_2" function="internal">
        <lane id=":1369554441_2_0" index="0" disallow="tram rail_urban rail rail_electric rail_fast ship" speed="6.44" length="9.03" shape="1685.14,796.95 1686.59,794.93 1687.03,792.95 1686.46,791.00 1684.87,789.09"/>
    </edge>
    <edge id=":1369554441_3" function="internal">
        <lane id=":1369554441_3_0" index="0" disallow="tram rail_urban rail rail_electric rail_fast ship" speed="16.67" length="14.35" shape="1685.14,796.95 1695.18,786.65"/>
        <lane id=":1369554441_3_1" index="1" disallow="tram rail_urban rail rail_electric rail_fast ship" speed="16.67" length="14.35" shape="1687.44,799.17 1697.46,788.90"/>
        <lane id=":1369554441_3_2" index="2" disallow="tram rail_urban rail rail_electric rail_fast ship" speed="16.67" length="14.35" shape="1689.74,801.39 1699.74,791.15"/>
    </edge>
    <edge id=":1369554453_0" function="internal">
        <lane id=":1369554453_0_0" index="0" disallow="tram rail_urban rail rail_electric rail_fast ship" speed="11.05" length="1.63" shape="1643.78,680.30 1643.46,680.66 1643.22,680.89 1642.95,681.08 1642.53,681.33"/>
    </edge>
    <edge id=":1369554453_1" function="internal">
        <lane id=":1369554453_1_0" index="0" disallow="tram rail_urban rail rail_electric rail_fast ship" speed="13.89" length="0.54" shape="1640.94,678.55 1641.08,678.47 1641.17,678.41 1641.25,678.33 1641.35,678.21"/>
    </edge>
    <edge id=":1369554457_0" function="internal">
        <lane id=":1369554457_0_0" index="0" disallow="tram rail_urban rail rail_electric rail_fast ship" speed="13.89" length="1.00" shape="1617.03,654.65 1616.84,654.87 1616.70,655.02 1616.54,655.15 1616.31,655.33"/>
    </edge>
    <edge id=":1369554457_1" function="internal">
        <lane id=":1369554457_1_0" index="0" disallow="tram rail_urban rail rail_electric rail_fast ship" speed="13.89" length="0.33" shape="1614.36,652.79 1614.44,652.73 1614.49,652.69 1614.54,652.64 1614.60,652.57"/>
    </edge>
    <edge id=":1369554468_0" function="internal">
        <lane id=":1369554468_0_0" index="0" disallow="tram rail_urban rail rail_electric rail_fast ship" speed="11.63" length="1.58" shape="1670.02,705.83 1669.82,706.25 1669.66,706.53 1669.46,706.79 1669.14,707.13"/>
    </edge>
    <edge id=":1369554468_1" function="internal">